[TITLE]
;;Project Title/Notes

[OPTIONS]
;;Option             Value
FLOW_UNITS           LPS
INFILTRATION         GREEN_AMPT
FLOW_ROUTING         DYNWAVE
LINK_OFFSETS         DEPTH
MIN_SLOPE            0.5
ALLOW_PONDING        NO
SKIP_STEADY_STATE    YES

IGNORE_SNOWMELT      YES
START_DATE           07/20/2018
START_TIME           00:00:00
REPORT_START_DATE    07/20/2018
REPORT_START_TIME    00:00:00
END_DATE             07/21/2018
END_TIME             23:55:00
SWEEP_START          01/01
SWEEP_END            12/31
DRY_DAYS             20
REPORT_STEP          00:05:00
WET_STEP             00:00:30
DRY_STEP             01:00:00
ROUTING_STEP         0:00:30 
RULE_STEP            00:00:00

INERTIAL_DAMPING     PARTIAL
NORMAL_FLOW_LIMITED  BOTH
FORCE_MAIN_EQUATION  H-W
VARIABLE_STEP        0.75
LENGTHENING_STEP     30
MIN_SURFAREA         1.14
MAX_TRIALS           10
HEAD_TOLERANCE       0.001
SYS_FLOW_TOL         5
LAT_FLOW_TOL         5
MINIMUM_STEP         0.1
THREADS              4

[EVAPORATION]
;;Data Source    Parameters
;;-------------- ----------------
CONSTANT         0.0
DRY_ONLY         NO

[RAINGAGES]
;;Name           Format    Interval SCF      Source    
;;-------------- --------- ------ ------ ----------
LO               VOLUME    00:05    1        FILE       "Euler_II_20T_120D.dat" LO         MM   

[SUBCATCHMENTS]
;;Name           Rain Gage        Outlet           Area     %Imperv  Width    %Slope   CurbLen  SnowPack        
;;-------------- ---------------- ---------------- -------- -------- -------- -------- -------- ----------------
Stone_Paver_s23  LO               36Q166RW         0.01     100      10       12.8033  10                       
Stone_Paver_s24  LO               36Q166RW         0.01     100      10       4.2426   10                       
Vegetation_s97   LO               Vegetation_s171  0.01     20       7.07     7.3162   10                       
Vegetation_s98   LO               Stone_Paver_s172 0.01     20       7.07     8.0474   10                       
Vegetation_s99   LO               Stone_Paver_s172 0.01     20       10       17.0711  10                       
Stone_Paver_s100 LO               Stone_Paver_s173 0.01     100      10       17.0711  10                       
Roof_s101        LO               Stone_Paver_s100 0.01     100      10       5        10                       
Roof_s170        LO               Vegetation_s97   0.01     100      10       5        10                       
Vegetation_s171  LO               Stone_Paver_s172 0.01     20       10       13.2038  10                       
Stone_Paver_s172 LO               83RW             0.01     100      10       14.9372  10                       
Stone_Paver_s173 LO               78RW             0.01     100      10       7.9079   10                       
Stone_Paver_s174 LO               78RW             0.01     100      10       4.0237   10                       
Stone_Paver_s237 LO               Vegetation_s310  0.01     100      10       11.0711  10                       
Vegetation_s244  LO               Stone_Paver_s172 0.01     20       7.07     2.4387   10                       
Vegetation_s245  LO               Stone_Paver_s172 0.01     20       10       4.2678   10                       
Stone_Paver_s246 LO               78RW             0.01     100      10       3.3839   10                       
Vegetation_s308  LO               Vegetation_s382  0.01     20       7.07     7.8033   10                       
Vegetation_s309  LO               Street_s383      0.01     20       7.07     14.2259  10                       
Vegetation_s310  LO               Street_s383      0.01     20       10       12.612   10                       
Vegetation_s311  LO               Street_s383      0.01     20       7.07     11.1872  10                       
Vegetation_s312  LO               Vegetation_s385  0.01     20       10       8.1694   10                       
Vegetation_s313  LO               Street_s387      0.01     20       7.07     6.0355   10                       
Vegetation_s314  LO               Street_s387      0.01     20       10       5.8876   10                       
Vegetation_s315  LO               Street_s388      0.01     20       10       3.4489   10                       
Vegetation_s318  LO               Stone_Paver_s246 0.01     20       7.07     1.0102   10                       
Vegetation_s319  LO               Stone_Paver_s246 0.01     20       10       4.8774   10                       
Vegetation_s380  LO               Vegetation_s454  0.01     20       7.07     7.5592   10                       
Vegetation_s381  LO               Street_s455      0.01     20       7.07     17.0711  10                       
Vegetation_s382  LO               Street_s455      0.01     20       10       18.3211  10                       
Street_s383      LO               Street_s456      0.01     100      10       16.3388  10                       
Vegetation_s384  LO               Street_s457      0.01     20       10       13.6872  10                       
Vegetation_s385  LO               Street_s458      0.01     20       10       10.3033  10                       
Vegetation_s386  LO               Street_s459      0.01     20       10       10.3033  10                       
Street_s387      LO               83RW             0.01     100      10       7.2855   10                       
Street_s388      LO               83RW             0.01     100      10       4.2678   10                       
Vegetation_s390  LO               Street_s463      0.01     20       10       4.2678   10                       
Roof_s392        LO               Vegetation_s319  0.01     100      10       5        10                       
Vegetation_s452  LO               Vegetation_s526  0.01     20       7.07     9.4194   10                       
Vegetation_s453  LO               Vegetation_s527  0.01     20       7.07     12.8033  10                       
Vegetation_s454  LO               Street_s455      0.01     20       10       21.3388  10                       
Street_s455      LO               36Q166RW         0.01     100      10       13.3211  10                       
Street_s456      LO               36Q166RW         0.01     100      10       8.6872   10                       
Street_s457      LO               36Q166RW         0.01     100      10       12.0711  10                       
Street_s458      LO               36Q166RW         0.01     100      10       15.455   10                       
Street_s459      LO               83RW             0.01     100      10       13.2038  10                       
Street_s460      LO               83RW             0.01     100      10       10.5199  10                       
Street_s461      LO               Street_s460      0.01     100      10       11.6019  10                       
Street_s462      LO               83RW             0.01     100      10       5.6694   10                       
Street_s463      LO               83RW             0.01     100      10       2.1339   10                       
Street_s469      LO               Street_s541      0.01     100      7.07     11.5533  10                       
Vegetation_s470  LO               Street_s469      0.01     20       10       7.6517   10                       
Vegetation_s471  LO               Vegetation_s543  0.01     20       7.07     4.8774   10                       
Vegetation_s472  LO               Street_s546      0.01     20       7.07     8.2426   10                       
Roof_s473        LO               Vegetation_s472  0.01     100      10       5        10                       
Vegetation_s526  LO               Vegetation_s527  0.01     20       10       15.8211  10                       
Vegetation_s527  LO               Street_s455      0.01     20       7.07     18.4727  10                       
Street_s529      LO               36Q166RW         0.01     100      10       5.2022   10                       
Vegetation_s530  LO               Street_s529      0.01     20       10       12.8284  10                       
Vegetation_s531  LO               Street_s457      0.01     20       7.07     27.3137  10                       
Vegetation_s532  LO               Street_s458      0.01     20       7.07     20.6066  10                       
Roof_s533        LO               Street_s460      0.01     100      10       5        10                       
Vegetation_s534  LO               Street_s460      0.01     20       7.07     31.6421  10                       
Street_s536      LO               83RW             0.01     100      10       4.2857   10                       
Street_s537      LO               36Q55RW          0.01     100      10       3.0305   10                       
Street_s541      LO               78RW             0.01     100      10       9.7855   10                       
Vegetation_s542  LO               Street_s541      0.01     20       10       11.0355  10                       
Vegetation_s543  LO               Street_s469      0.01     20       7.07     10.1733  10                       
Vegetation_s544  LO               Vegetation_s543  0.01     20       10       8.5355   10                       
Roof_s545        LO               Vegetation_s472  0.01     100      10       5        10                       
Street_s546      LO               78RW             0.01     100      10       5.8926   10                       
Roof_s602        LO               Street_s529      0.01     100      10       5        10                       
Roof_s603        LO               Vegetation_s530  0.01     100      10       5        10                       
Roof_s604        LO               Vegetation_s531  0.01     100      10       5        10                       
Roof_s605        LO               Vegetation_s532  0.01     100      10       5        10                       
Roof_s607        LO               Vegetation_s534  0.01     100      10       5        10                       
Street_s610      LO               36Q55RW          0.01     100      10       7.8452   10                       
Street_s611      LO               36Q55RW          0.01     100      10       2.8452   10                       
Street_s613      LO               78RW             0.01     100      10       7.3162   10                       
Street_s614      LO               Street_s613      0.01     100      10       11.9194  10                       
Vegetation_s615  LO               Street_s541      0.01     20       7.07     8.1694   10                       
Roof_s617        LO               Vegetation_s544  0.01     100      10       5        10                       
Roof_s623        LO               Vegetation_s696  0.01     100      10       5        10                       
Vegetation_s684  LO               Street_s610      0.01     20       7.07     5.6904   10                       
Street_s685      LO               36Q55RW          0.01     100      10       6.306    10                       
Vegetation_s686  LO               Street_s685      0.01     20       10       8.0178   10                       
Vegetation_s687  LO               Street_s613      0.01     20       7.07     12.2855  10                       
Vegetation_s694  LO               Vegetation_s768  0.01     20       7.07     4.8284   10                       
Roof_s695        LO               Vegetation_s694  0.01     100      10       5        10                       
Vegetation_s696  LO               Stone_Paver_s770 0.01     20       7.07     24.8744  10                       
Stone_Paver_s697 LO               Stone_Paver_s770 0.01     100      10       19.6569  10                       
Stone_Paver_s698 LO               Stone_Paver_s770 0.01     100      7.07     16.3388  10                       
Roof_s757        LO               Vegetation_s684  0.01     100      10       5        10                       
Roof_s767        LO               Vegetation_s694  0.01     100      10       5        10                       
Vegetation_s768  LO               Stone_Paver_s769 0.01     20       10       8.5355   10                       
Stone_Paver_s769 LO               Stone_Paver_s770 0.01     100      10       20.2426  10                       
Stone_Paver_s770 LO               78RW             0.01     100      10       23.9399  10                       
Stone_Paver_s771 LO               Stone_Paver_s844 0.01     100      10       12.2426  10                       
Stone_Paver_s772 LO               Stone_Paver_s844 0.01     100      7.07     5.3033   10                       
Roof_s840        LO               Vegetation_s841  0.01     100      10       5        10                       
Vegetation_s841  LO               Stone_Paver_s769 0.01     20       7.07     7.0711   10                       
Roof_s842        LO               Stone_Paver_s769 0.01     100      10       5        10                       
Roof_s843        LO               Stone_Paver_s770 0.01     100      10       5        10                       
Stone_Paver_s844 LO               78RW             0.01     100      10       5.6904   10                       
Roof_s845        LO               Stone_Paver_s772 0.01     100      10       5        10                       
Street_s908      LO               78RW             0.01     100      10       0.1      10                       
Vegetation_s913  LO               Vegetation_s986  0.01     20       10       8.0474   10                       
Roof_s914        LO               Vegetation_s841  0.01     100      10       5        10                       
Roof_s915        LO               Vegetation_s841  0.01     100      10       5        10                       
Roof_s917        LO               Stone_Paver_s844 0.01     100      10       5        10                       
Vegetation_s985  LO               Street_s1059     0.01     20       7.07     7.0711   10                       
Vegetation_s986  LO               Street_s1059     0.01     20       10       12.8284  10                       
Roof_s987        LO               Vegetation_s986  0.01     100      10       5        10                       
Vegetation_s1037 LO               Vegetation_s1111 0.01     20       7.07     13.3771  10                       
Roof_s1041       LO               Vegetation_s1042 0.01     100      10       5        10                       
Vegetation_s1042 LO               Street_s1115     0.01     20       10       8.5355   10                       
Vegetation_s1043 LO               Street_s1116     0.01     20       10       14.5711  10                       
Roof_s1044       LO               Vegetation_s1043 0.01     100      10       5        10                       
Vegetation_s1046 LO               Vegetation_s1118 0.01     20       7.07     18.7279  10                       
Street_s1053     LO               36Q55RW          0.01     100      10       7.0711   10                       
Vegetation_s1058 LO               Street_s1059     0.01     20       10       16.3807  10                       
Street_s1059     LO               78RW             0.01     100      10       22.1936  10                       
Vegetation_s1109 LO               Street_s1183     0.01     20       7.07     17.6628  10                       
Vegetation_s1110 LO               Street_s1184     0.01     20       7.07     28.8463  10                       
Vegetation_s1111 LO               Street_s1184     0.01     20       10       26.0948  10                       
Vegetation_s1112 LO               Street_s1185     0.01     20       10       10.8284  10                       
Street_s1113     LO               83RW             0.01     100      10       2        10                       
Street_s1114     LO               83RW             0.01     100      10       1.1785   10                       
Street_s1115     LO               83RW             0.01     100      10       3.4489   10                       
Street_s1116     LO               83RW             0.01     100      10       3.8673   10                       
Street_s1117     LO               83RW             0.01     100      10       5.6904   10                       
Vegetation_s1118 LO               Street_s1191     0.01     20       10       20.7279  10                       
Roof_s1119       LO               Vegetation_s1046 0.01     100      10       5        10                       
Vegetation_s1130 LO               Street_s1131     0.01     20       10       25.5563  10                       
Street_s1131     LO               Street_s1059     0.01     100      7.07     21.4142  10                       
Street_s1132     LO               Street_s1059     0.01     100      10       10.1733  10                       
Vegetation_s1181 LO               Street_s1255     0.01     20       7.07     23.3137  10                       
Vegetation_s1182 LO               Street_s1256     0.01     20       7.07     27.6628  10                       
Street_s1183     LO               Street_s1184     0.01     100      10       22.4372  10                       
Street_s1184     LO               36Q153RW         0.01     100      10       24.8744  10                       
Street_s1185     LO               83RW             0.01     100      10       15.0888  10                       
Street_s1186     LO               83RW             0.01     100      10       11.705   10                       
Street_s1189     LO               83RW             0.01     100      10       0.1      10                       
Street_s1190     LO               83RW             0.01     100      10       1.7678   10                       
Street_s1191     LO               83RW             0.01     100      10       7.1429   10                       
Vegetation_s1192 LO               Street_s1265     0.01     20       10       19.0711  10                       
Roof_s1193       LO               Vegetation_s1192 0.01     100      10       5        10                       
Vegetation_s1195 LO               Vegetation_s1267 0.01     20       7.07     9.0711   10                       
Roof_s1203       LO               Vegetation_s1130 0.01     100      10       5        10                       
Roof_s1205       LO               Street_s1132     0.01     100      10       5        10                       
Vegetation_s1252 LO               Street_s1326     0.01     20       7.07     38.0094  10                       
Vegetation_s1253 LO               Street_s1327     0.01     20       7.07     26.4075  10                       
Vegetation_s1254 LO               Street_s1327     0.01     20       10       29.0914  10                       
Street_s1255     LO               Street_s1256     0.01     100      10       21.1872  10                       
Street_s1256     LO               Street_s1184     0.01     100      7.07     22.7405  10                       
Vegetation_s1257 LO               Street_s1184     0.01     20       10       14.0533  10                       
Vegetation_s1258 LO               Street_s1184     0.01     20       7.07     15.9727  10                       
Vegetation_s1259 LO               Street_s1185     0.01     20       7.07     19.205   10                       
Vegetation_s1260 LO               Street_s1186     0.01     20       7.07     25.7583  10                       
Street_s1264     LO               83RW             0.01     100      10       12.5888  10                       
Street_s1265     LO               80RW             0.01     100      10       13.0305  10                       
Street_s1266     LO               Street_s1339     0.01     100      10       15.2022  10                       
Vegetation_s1267 LO               Street_s1340     0.01     20       10       31.5563  10                       
Roof_s1268       LO               Vegetation_s1195 0.01     100      10       5        10                       
Vegetation_s1270 LO               Vegetation_s1344 0.01     20       7.07     5.6569   10                       
Vegetation_s1271 LO               Vegetation_s1344 0.01     20       10       8.7447   10                       
Vegetation_s1272 LO               Vegetation_s1344 0.01     20       7.07     9.6339   10                       
Street_s1281     LO               78RW             0.01     100      10       2.8284   10                       
Street_s1292     LO               36Q69RW          0.01     100      10       6.306    10                       
Vegetation_s1293 LO               Street_s1365     0.01     20       7.07     19.4281  10                       
Vegetation_s1294 LO               Stone_Paver_s1368 0.01     20       7.07     12.0711  10                       
Vegetation_s1324 LO               Street_s1398     0.01     20       7.07     9.0533   10                       
Vegetation_s1325 LO               Street_s1326     0.01     20       10       18.6872  10                       
Street_s1326     LO               Street_s1327     0.01     100      10       25.7583  10                       
Street_s1327     LO               36Q153RW         0.01     100      10       22.3669  10                       
Stone_Paver_s1328 LO               Street_s1256     0.01     100      7.07     16.6526  10                       
Vegetation_s1329 LO               Street_s1256     0.01     20       10       13.4489  10                       
Vegetation_s1330 LO               Street_s1256     0.01     20       7.07     5.6694   10                       
Vegetation_s1331 LO               Vegetation_s1259 0.01     20       7.07     6.4017   10                       
Vegetation_s1332 LO               Vegetation_s1259 0.01     20       10       21.3388  10                       
Street_s1338     LO               Street_s1264     0.01     100      7.07     10.6694  10                       
Street_s1339     LO               80RW             0.01     100      10       14.5711  10                       
Street_s1340     LO               80RW             0.01     100      10       12.612   10                       
Roof_s1343       LO               Vegetation_s1270 0.01     100      10       5        10                       
Vegetation_s1344 LO               Vegetation_s1416 0.01     20       7.07     21.0711  10                       
Vegetation_s1345 LO               Vegetation_s1344 0.01     20       10       35.8088  10                       
Street_s1352     LO               78RW             0.01     100      10       4.2426   10                       
Roof_s1353       LO               Street_s1352     0.01     100      10       5        10                       
Roof_s1354       LO               Street_s1281     0.01     100      10       5        10                       
Vegetation_s1359 LO               Street_s1432     0.01     20       10       12.7854  10                       
Vegetation_s1360 LO               Street_s1432     0.01     20       7.07     9.3365   10                       
Street_s1365     LO               36Q69RW          0.01     100      10       6.0355   10                       
Vegetation_s1366 LO               Vegetation_s1439 0.01     20       10       8.7447   10                       
Vegetation_s1367 LO               Stone_Paver_s1368 0.01     20       10       10.8926  10                       
Stone_Paver_s1368 LO               36R83RW          0.01     100      10       12.0711  10                       
Vegetation_s1397 LO               Street_s1471     0.01     20       7.07     8.6872   10                       
Street_s1398     LO               Street_s1326     0.01     100      7.07     14.6323  10                       
Street_s1399     LO               Street_s1327     0.01     100      7.07     11.3568  10                       
Stone_Paver_s1400 LO               Street_s1327     0.01     100      10       9.4142   10                       
Roof_s1401       LO               Stone_Paver_s1328 0.01     100      10       5        10                       
Vegetation_s1402 LO               Vegetation_s1329 0.01     20       10       14.714   10                       
Vegetation_s1403 LO               Vegetation_s1329 0.01     20       7.07     8.1694   10                       
Vegetation_s1412 LO               Street_s1339     0.01     20       10       9.4194   10                       
Street_s1413     LO               Street_s1339     0.01     100      7.07     8.1694   10                       
Street_s1414     LO               80RW             0.01     100      10       2.4387   10                       
Street_s1415     LO               80RW             0.01     100      10       3.3333   10                       
Vegetation_s1416 LO               Street_s1489     0.01     20       10       15.0711  10                       
Roof_s1417       LO               Vegetation_s1344 0.01     100      10       5        10                       
Roof_s1418       LO               Vegetation_s1345 0.01     100      10       5        10                       
Vegetation_s1419 LO               Vegetation_s1492 0.01     20       10       11.9485  10                       
Street_s1431     LO               36Q69RW          0.01     100      10       10.8926  10                       
Street_s1432     LO               36Q69RW          0.01     100      10       9.1632   10                       
Vegetation_s1433 LO               Street_s1506     0.01     20       10       7.2855   10                       
Vegetation_s1439 LO               Stone_Paver_s1513 0.01     20       7.07     4.8774   10                       
Roof_s1440       LO               Vegetation_s1367 0.01     100      10       5        10                       
Stone_Paver_s1441 LO               36R83RW          0.01     100      10       6.2426   10                       
Stone_Paver_s1442 LO               Stone_Paver_s1441 0.01     100      10       4.2678   10                       
Stone_Paver_s1443 LO               36R83RW          0.01     100      10       0.1      10                       
Roof_s1467       LO               Vegetation_s1468 0.01     100      10       5        10                       
Vegetation_s1468 LO               Street_s1542     0.01     20       7.07     7.4142   10                       
Vegetation_s1469 LO               Street_s1542     0.01     20       10       17.9079  10                       
Street_s1470     LO               Street_s1471     0.01     100      10       11.8689  10                       
Street_s1471     LO               Street_s1399     0.01     100      7.07     17.0711  10                       
Stone_Paver_s1473 LO               Street_s1399     0.01     100      7.07     8.0474   10                       
Roof_s1474       LO               Stone_Paver_s1473 0.01     100      10       5        10                       
Stone_Paver_s1475 LO               Vegetation_s1403 0.01     100      7.07     12.5592  10                       
Vegetation_s1476 LO               Vegetation_s1403 0.01     20       10       7.6517   10                       
Vegetation_s1477 LO               Vegetation_s1403 0.01     20       7.07     8.5355   10                       
Vegetation_s1485 LO               Street_s1413     0.01     20       7.07     8.5355   10                       
Vegetation_s1486 LO               Street_s1414     0.01     20       7.07     9.4194   10                       
Street_s1488     LO               80RW             0.01     100      10       1.7678   10                       
Street_s1489     LO               80RW             0.01     100      10       4.2857   10                       
Street_s1490     LO               Street_s1563     0.01     100      10       11.8689  10                       
Vegetation_s1491 LO               Street_s1564     0.01     20       10       17.5592  10                       
Vegetation_s1492 LO               Street_s1564     0.01     20       7.07     13.2038  10                       
Roof_s1504       LO               Street_s1431     0.01     100      10       5        10                       
Street_s1505     LO               Street_s1431     0.01     100      7.07     13.6569  10                       
Street_s1506     LO               36Q69RW          0.01     100      10       10.5917  10                       
Vegetation_s1512 LO               Stone_Paver_s1513 0.01     20       10       11.3807  10                       
Stone_Paver_s1513 LO               36R83RW          0.01     100      10       6.7678   10                       
Roof_s1514       LO               Stone_Paver_s1441 0.01     100      10       5        10                       
Stone_Paver_s1515 LO               Stone_Paver_s1441 0.01     100      7.07     1.7678   10                       
Roof_s1516       LO               Stone_Paver_s1443 0.01     100      10       5        10                       
Roof_s1517       LO               Stone_Paver_s1443 0.01     100      10       5        10                       
Vegetation_s1541 LO               Street_s1614     0.01     20       10       14.8284  10                       
Street_s1542     LO               Street_s1614     0.01     100      7.07     14.2426  10                       
Vegetation_s1558 LO               Vegetation_s1486 0.01     20       7.07     5.6694   10                       
Street_s1562     LO               36Q123RW         0.01     100      10       4.4194   10                       
Street_s1563     LO               80RW             0.01     100      10       4.7855   10                       
Street_s1564     LO               80RW             0.01     100      10       14.4194  10                       
Vegetation_s1565 LO               Street_s1638     0.01     20       10       23.1066  10                       
Vegetation_s1566 LO               Street_s1639     0.01     20       10       35.5438  10                       