Geom Title=geometry_s7
Program Version=6.10
Viewing Rectangle= 610927.454450988 , 615090.850709993 , 2136257.35339879 , 2134528.89234893 

River Reach=River 1         ,Reach 1         
Reach XY= 10 
611116.6997354882134732.16734974611490.8255038572134819.46336236
611877.4221311732134919.23023392612251.5478995422134912.99480445
612781.5594047322135037.70339391613230.5103267762135212.29541915
613729.3446846022135555.24404015614265.5916192652135829.60293696
614702.0716823622136010.43039167614901.6054254932135997.95953272
Rch Text X Y=612062.926158,2135048.6153955
Reverse River Text= 0 

Type RM Length L Ch R = 1 ,3909    ,243.7,243.7,243.7
XS GIS Cut Line=2
611222.7020365262134962.87824023611303.7626196722134607.45876028
Node Last Edited Time=Feb/13/2022 12:06:11
#Sta/Elev= 35 
       0 2529.89    44.1 2498.39    47.2 2496.32    54.7 2491.02    59.4 2487.86
      90 2468.49      92 2467.27   100.9  2462.3   105.3  2459.8   106.6 2459.11
     117 2453.32   120.6 2451.41   135.9 2444.96   141.9 2444.39   146.2 2444.32
   151.2    2444   212.4    2444   216.6 2445.38   225.5    2449   227.7 2449.78
     229 2450.58   241.5 2458.37   242.9 2459.24   245.3 2460.92   253.9 2466.88
   258.2 2470.04   265.1 2475.51   266.4 2476.56   273.5 2482.15   319.4 2522.52
   334.7 2534.97   341.1 2539.97   344.3 2542.38     350 2546.71364.5461 2556.45
#Mann= 3 ,-1,0
       0    .025       0       0    .025       0364.5461    .025       0
Bank Sta=0,364.5461
XS Rating Curve= 0 ,0
XS HTab Starting El and Incr=2444.15,0.3, 100 
XS HTab Horizontal Distribution= 5 , 5 , 5 
Exp/Cntr(USF)=0,0
Exp/Cntr=0.3,0.1

Type RM Length L Ch R = 1 ,3665    ,246.4,246.4,246.4
XS GIS Cut Line=2
611459.6483564932135006.52624654611534.4735101672134700.99020238
Node Last Edited Time=Feb/13/2022 12:06:11
#Sta/Elev= 40 
       0 2516.69    38.4 2503.58    43.2 2501.85    58.6 2494.36    65.1 2490.09
    66.9 2488.96    73.9  2484.3    79.2 2480.39    85.4 2476.11    89.3 2473.38
     101 2463.78   103.9 2461.48   104.6 2460.94     120  2449.7   126.1  2447.4
   128.6 2446.41   135.3    2444     166    2444   166.7 2444.31   177.9 2447.66
   181.4 2449.41   187.1 2453.59   190.2 2455.73   196.7 2460.68   202.5 2465.52
   207.4 2469.94   226.4 2486.28   227.4 2487.18   242.7 2499.87   248.1 2503.74
   251.9 2506.61   258.1 2511.06   273.4 2513.51   276.5  2515.5   288.8 2522.96
   288.9 2522.99   301.2 2529.29     309 2532.98   313.5 2535.19314.5649 2535.67
#Mann= 3 ,-1,0
       0    .025       0       0    .025       0314.5649    .025       0
Bank Sta=0,314.5649
XS Rating Curve= 0 ,0
XS HTab Starting El and Incr=2444.15,0.3, 100 
XS HTab Horizontal Distribution= 5 , 5 , 5 
Exp/Cntr(USF)=0,0
Exp/Cntr=0.3,0.1

Type RM Length L Ch R = 1 ,3419    ,215.7,215.7,215.7
XS GIS Cut Line=2
 611696.594676462135037.70339391 611783.890689082134750.87363816
Node Last Edited Time=Feb/13/2022 12:06:11
#Sta/Elev= 45 
       0 2531.05     4.2 2528.38     7.5 2526.36    14.1 2521.99    29.7 2509.25
    31.4 2507.73    36.8 2502.51    45.3 2494.51      49  2490.9    55.3 2484.62
    60.9 2479.24    67.2 2472.76    71.4 2468.66    76.5 2463.58    79.2 2461.05
      88 2453.83    91.1 2451.39      92 2450.69    93.8 2449.99   103.1 2445.47
   107.6    2444   154.4    2444     161 2445.06   162.8 2445.31     170  2446.6
   174.7 2451.45   183.4 2459.87   185.5    2462   186.7 2463.39   190.4 2467.66
   198.6 2476.88   201.1 2479.58   205.8  2484.8   210.6 2490.35   232.3 2513.73
   241.6  2521.4   246.4 2525.37   247.9 2526.64   263.5 2538.72   270.3  2542.5
     273 2544.09     279 2547.54   282.3 2548.86   294.6 2554.97299.8198 2556.26
#Mann= 3 ,-1,0
       0    .025       0       0    .025       0299.8198    .025       0
Bank Sta=0,299.8198
XS Rating Curve= 0 ,0
XS HTab Starting El and Incr=2444.15,0.3, 100 
XS HTab Horizontal Distribution= 5 , 5 , 5 
Exp/Cntr(USF)=0,0
Exp/Cntr=0.3,0.1

Type RM Length L Ch R = 1 ,3203    ,215.2,215.2,215.2
XS GIS Cut Line=2
611896.1284195912135112.52854758612008.3661501022134738.40277921
Node Last Edited Time=Feb/13/2022 12:06:11
#Sta/Elev= 44 
       0 2517.77     3.1 2516.21    13.1 2510.79    14.4 2510.12    15.1 2509.71
    27.1 2503.21      30 2501.52    35.3 2498.03      39 2495.54    45.5 2491.46
    61.1 2482.16    76.7 2471.86    92.2 2462.56   107.8 2454.26   121.2 2447.97
   122.9 2447.22   123.4    2447   138.9    2444   201.2    2444   206.7 2444.18
   213.2 2444.11   216.7 2444.16   218.6 2444.67   230.6  2448.4   232.3 2448.86
   247.9 2454.56   254.6 2457.22   257.7 2458.34   263.4 2460.52   276.8 2466.89
   278.5 2467.71     279 2467.96   279.9 2468.45   290.5 2474.24   302.5 2480.31
   310.1 2484.36   328.7 2494.75   338.4 2500.05   341.3 2501.52   346.6 2504.24
   350.3 2506.04   356.8 2509.46   372.4 2517.16390.5988 2524.99
#Mann= 3 ,-1,0
       0    .025       0       0    .025       0390.5988    .025       0
Bank Sta=0,390.5988
XS Rating Curve= 0 ,0
XS HTab Starting El and Incr=2444.15,0.3, 100 
XS HTab Horizontal Distribution= 5 , 5 , 5 
Exp/Cntr(USF)=0,0
Exp/Cntr=0.3,0.1

Type RM Length L Ch R = 1 ,2988    ,235.4,235.4,235.4
XS GIS Cut Line=2
612133.0747395582135093.82225916612201.6644637592134757.10906763
Node Last Edited Time=Feb/13/2022 12:06:11
#Sta/Elev= 58 
       0 2534.57    10.2 2533.77    14.1 2533.35    23.4 2532.68    25.4 2532.49
    33.1 2531.49    40.6  2530.4    42.6 2529.94      52 2527.41    55.8 2526.52
    61.7 2524.81    64.6 2523.86    71.1 2522.05    86.3 2514.27   101.5  2504.5
   102.5 2503.57   115.2 2492.04   116.7 2490.72     119  2488.2   127.8 2478.91
   131.9 2474.29   138.1 2466.91   140.5 2464.19   147.1 2456.05   153.1  2451.5
   157.2 2448.06   162.3    2444   177.6    2444   178.4 2444.03   182.5 2444.32
     191 2445.23   192.8 2445.83   195.4 2448.47   203.7  2456.3     208 2460.73
   214.5  2468.3   216.3 2470.28   238.4 2496.49   253.6 2512.53   254.2 2513.02
   257.2 2515.31   268.9 2524.41   271.8 2526.05   279.5 2530.45   284.1 2532.88
     291 2535.43   292.2 2535.94   299.3 2538.38   304.8 2540.09   310.1 2541.52
   314.5 2542.84   317.4 2543.32   329.2  2544.8   329.7 2544.89   330.1 2544.93
   331.8 2545.14   342.7 2546.22343.6282 2546.27
#Mann= 3 ,-1,0
       0    .025       0       0    .025       0343.6282    .025       0
Bank Sta=0,343.6282
XS Rating Curve= 0 ,0
XS HTab Starting El and Incr=2444.15,0.3, 100 
XS HTab Horizontal Distribution= 5 , 5 , 5 
Exp/Cntr(USF)=0,0
Exp/Cntr=0.3,0.1

Type RM Length L Ch R = 1 ,2753    ,225.4,225.4,225.4
XS GIS Cut Line=2
612351.3147711072135137.47026547612451.0816426722134757.10906763
Node Last Edited Time=Feb/13/2022 12:06:11
#Sta/Elev= 65 
       0 2534.21     9.2 2531.94    16.6 2529.42    17.1 2529.24    24.6 2526.54
    29.3 2524.54    37.5 2520.75      40 2519.62    47.3 2516.18    53.8 2513.17
    55.5  2512.3    70.9 2510.99    78.2 2506.81    79.3 2506.16    86.3 2502.02
    90.4 2499.33   100.1 2493.36   101.7 2492.37     106 2489.18   114.8 2482.82
   117.1 2481.25   132.5  2471.2   139.2 2466.61   141.9 2464.87   147.9 2460.86
   151.4 2458.75   162.8 2452.35   163.3 2452.05   163.6  2451.9   164.8 2451.34
   175.9 2446.03   178.8 2444.76   183.7 2444.52   188.1  2444.2   194.2    2444
     225    2444   225.5 2444.03   236.9 2445.32   240.4 2445.43   246.4 2448.33
   249.1 2449.78   255.8  2452.8   261.3 2455.82   267.3 2458.36   271.2 2460.32
   273.5 2461.32   282.3 2464.04   285.8 2465.16   286.7 2465.41   288.2  2465.7
     298 2468.01   302.1 2468.64   317.5 2469.02   322.4 2469.46     330 2470.76
   332.9 2471.12   334.6  2472.1   341.1 2476.92   346.8 2481.64   348.3 2482.88
   350.9 2485.24     359 2492.97   363.7 2497.23   379.1 2510.71393.2278  2521.2
#Mann= 3 ,-1,0
       0    .025       0       0    .025       0393.2278    .025       0
Bank Sta=0,393.2278
XS Rating Curve= 0 ,0
XS HTab Starting El and Incr=2444.15,0.3, 100 
XS HTab Horizontal Distribution= 5 , 5 , 5 
Exp/Cntr(USF)=0,0
Exp/Cntr=0.3,0.1

Type RM Length L Ch R = 1 ,2528    ,197.5,197.5,197.5
XS GIS Cut Line=2
612550.8485142382135187.35370126612694.2633921132134800.75707394
Node Last Edited Time=Feb/13/2022 12:06:11
#Sta/Elev= 36 
       0 2518.59     4.2 2517.19    13.2 2514.62      15 2514.07    15.8 2513.77
    27.4 2508.98      39 2504.71    46.8 2501.66    60.9 2494.79    62.2 2494.17
    62.7 2493.96    94.5 2479.22      97 2477.97   108.6 2471.73   110.4 2470.85
   142.2  2456.1   158.1 2449.73     174 2449.36   189.8 2444.02   189.9    2444
   269.4    2444     271 2444.35   275.2 2445.46   282.6 2447.57   285.3 2448.47
   294.2 2451.67   301.2 2454.21   318.1 2461.37     361 2480.54   363.8 2481.84
   364.8 2482.27   380.7 2489.38   396.6  2495.5   398.6 2496.18   403.8 2497.81
412.3406 2500.54
#Mann= 3 ,-1,0
       0    .025       0       0    .025       0412.3406    .025       0
Bank Sta=0,412.3406
XS Rating Curve= 0 ,0
XS HTab Starting El and Incr=2444.15,0.3, 100 
XS HTab Horizontal Distribution= 5 , 5 , 5 
Exp/Cntr(USF)=0,0
Exp/Cntr=0.3,0.1

Type RM Length L Ch R = 1 ,2330    ,270.9,270.9,270.9
XS GIS Cut Line=2
 612731.67596895 2135268.4142844612881.326276297 2134856.8759392
Node Last Edited Time=Feb/13/2022 12:06:11
#Sta/Elev= 71 
       0    2520       6    2520     7.8 2520.06    12.8 2520.42    21.9    2521
    27.1 2521.16    31.1 2521.21    37.8 2521.57    53.6 2522.94    54.4 2522.98
      66 2524.11    69.5  2524.6    85.4 2526.33     100    2527   100.9    2527
   101.2    2527   101.9 2526.93   112.5 2525.72   117.1 2525.39   124.2 2523.99
   126.8 2523.35     133    2522   143.6 2518.63   147.4 2517.04   148.8 2516.29
   151.8 2514.11   159.1 2508.88   164.7 2504.62   170.7  2499.1   176.7 2493.08
   180.5 2489.39   182.3 2487.38   187.3 2482.07     194 2474.54   201.6  2465.6
   205.6 2460.73   212.3 2453.41   217.2 2449.37   226.6 2444.99   228.1    2444
   228.9 2444.21   230.9 2445.39   240.5 2450.79     244  2453.5   251.5 2462.16
   252.1 2462.89   259.9 2471.99   263.8 2476.34   274.5 2488.77   275.4 2489.72
   275.7 2490.06   276.4 2490.64     287 2499.27   291.6 2503.17   307.5 2504.27
   310.3  2505.9   321.9 2512.56   323.3 2512.88   326.3 2513.75   339.2 2517.52
   345.2 2517.95   351.2 2518.64     355    2519   361.8 2519.42   368.5 2519.77
   370.9    2520   405.4 2522.17     415 2522.89   418.5    2523   434.4    2524
 437.903    2524
#Mann= 3 ,-1,0
       0    .025       0       0    .025       0 437.903    .025       0
Bank Sta=0,437.903
XS Rating Curve= 0 ,0
XS HTab Starting El and Incr=2444.15,0.3, 100 
XS HTab Horizontal Distribution= 5 , 5 , 5 
Exp/Cntr(USF)=0,0
Exp/Cntr=0.3,0.1

Type RM Length L Ch R = 1 ,2059    ,202.2,202.2,202.2
XS GIS Cut Line=2
 612974.857718392135343.23943808 613130.743455212135000.29081707
Node Last Edited Time=Feb/13/2022 12:06:11
#Sta/Elev= 36 
       0 2504.16     6.5  2502.6    12.6 2500.98    15.5 2500.23    22.9 2498.04
    55.7 2487.31   121.2 2461.85   128.1 2459.36   132.7 2457.95   137.6 2456.33
   143.4 2454.56   153.9 2451.13   161.9 2448.76   162.7 2448.56   173.2 2445.74
   184.4 2443.21   186.7    2443   251.5    2443     252 2443.01   252.2 2443.04
   268.6 2448.95   284.9 2455.86   285.8 2456.17   287.6  2456.8     297 2460.08
   301.3 2461.76   323.6 2471.16   330.8  2473.9   342.1 2477.68   342.8 2477.97
   350.5 2480.75   353.3 2481.79   359.6  2483.8   372.8  2488.2   375.8  2489.2
376.7149 2489.49
#Mann= 3 ,-1,0
       0    .025       0       0    .025       0376.7149    .025       0
Bank Sta=0,376.7149
XS Rating Curve= 0 ,0
XS HTab Starting El and Incr=2443.15,0.3, 100 
XS HTab Horizontal Distribution= 5 , 5 , 5 
Exp/Cntr(USF)=0,0
Exp/Cntr=0.3,0.1

Type RM Length L Ch R = 1 ,1857    ,155.5,155.5,155.5
XS GIS Cut Line=2
613136.978884683 2135430.5354507613342.7480572862135056.40968233
Node Last Edited Time=Feb/13/2022 12:06:11
#Sta/Elev= 53 
       0 2498.25     3.3 2498.06     4.3 2498.03    21.3 2498.58    25.9 2498.33
    34.2 2497.48    36.9 2497.17    38.4 2497.13    55.4 2495.68    72.4 2493.23
    89.4 2489.78    96.1 2488.03   102.8  2486.4   106.4 2485.67   113.7 2483.77
     119 2482.17   123.4 2480.88   127.1 2479.72   135.7 2476.82   140.5    2475
   157.7 2467.92   168.6 2462.58   174.5 2459.47   179.6 2457.04   188.9 2452.21
   190.6  2451.4   191.5 2450.92   194.6 2449.62   201.6 2446.84   208.5 2443.73
   212.5 2443.24   219.9    2443   259.6    2443   267.4 2444.39   270.3 2445.14
   276.6 2446.67   278.4 2447.16   281.7 2448.21   312.7 2458.49   327.6 2463.93
   333.3 2465.83   344.3 2469.02   344.6 2469.13   345.9 2469.55   355.3 2472.81
   361.7 2474.75   374.6 2478.27   377.2 2479.04   378.7  2479.4   395.7 2484.05
   399.2  2484.9   405.5 2486.15 426.979 2490.07
#Mann= 3 ,-1,0
       0    .025       0       0    .025       0 426.979    .025       0
Bank Sta=0,426.979
XS Rating Curve= 0 ,0
XS HTab Starting El and Incr=2443.15,0.3, 100 
XS HTab Horizontal Distribution= 5 , 5 , 5 
Exp/Cntr(USF)=0,0
Exp/Cntr=0.3,0.1

Type RM Length L Ch R = 1 ,1701    ,167.4,167.4,167.4
XS GIS Cut Line=2
613280.3937625582135492.88974542613473.6920762162135137.47026547
Node Last Edited Time=Feb/13/2022 12:06:11
#Sta/Elev= 55 
       0 2500.41     7.4  2499.5    15.2    2499    21.2 2498.52    24.4 2498.12
    58.3 2494.86    65.1  2494.4    72.5 2493.57    75.3  2493.3    77.6    2493
    92.3 2490.65    98.1 2489.89   108.8    2488   109.1 2487.94   109.2 2487.89
   120.1 2484.29   126.2 2481.99   143.2 2477.09   146.9 2475.01   153.1  2471.7
   160.2 2467.55   164.1 2465.04   175.1 2458.45   177.1 2457.11   184.1 2452.18
     186 2450.76   194.1 2445.87     197 2444.35   202.4 2443.02     208 2442.27
   211.1 2442.55     219 2447.28   221.4 2448.87     228 2453.28   233.7  2458.3
     241 2464.76     245 2468.46     252  2474.5   258.6 2479.87     262 2482.72
     263 2483.33   264.9 2484.52     279 2492.45   295.9    2498     307 2499.13
   312.9    2500   327.3    2500     329 2499.97   329.9    2500   346.8    2500
   350.9 2499.88   358.5    2500   361.9 2499.94   363.8    2500404.5828    2500
#Mann= 3 ,-1,0
       0    .025       0       0    .025       0404.5828    .025       0
Bank Sta=0,404.5828
XS Rating Curve= 0 ,0
XS HTab Starting El and Incr=2442.42,0.3, 100 
XS HTab Horizontal Distribution= 5 , 5 , 5 
Exp/Cntr(USF)=0,0
Exp/Cntr=0.3,0.1

Type RM Length L Ch R = 1 ,1534    ,198.4,198.4,198.4
XS GIS Cut Line=2
613430.0440699062135586.42118752613598.4006656722135237.23713704
Node Last Edited Time=Feb/13/2022 12:06:11
#Sta/Elev= 46 
       0 2484.48    15.5 2480.33    24.1 2477.87    35.3 2474.21    40.3  2472.8
    46.5 2470.95    57.6 2467.11    68.8 2463.78    72.2 2462.59      80 2460.06
    91.1  2456.9   102.3 2453.24   104.2 2452.69   111.1 2450.64   127.6  2446.2
   144.2 2442.75     147 2442.25   152.8 2441.48   158.1 2441.08   160.7    2441
   210.4    2441     214 2441.33   221.4 2442.33   225.1 2442.95   226.9 2443.32
   255.8 2451.97   258.6 2452.79     260 2453.25     264 2454.56   269.8 2456.57
   276.6 2458.61   290.1    2459   292.1 2459.12   293.1 2459.18     296 2460.12
   303.3 2462.65   309.7 2464.57   325.6 2469.87   326.2 2470.05   342.8 2475.54
   358.7 2479.85   359.1 2479.95   359.3    2480   370.3 2482.16   381.5 2484.84
387.6512 2486.05
#Mann= 3 ,-1,0
       0    .025       0       0    .025       0387.6512    .025       0
Bank Sta=0,387.6512
XS Rating Curve= 0 ,0
XS HTab Starting El and Incr=2441.15,0.3, 100 
XS HTab Horizontal Distribution= 5 , 5 , 5 
Exp/Cntr(USF)=0,0
Exp/Cntr=0.3,0.1

Type RM Length L Ch R = 1 ,1336    ,181.5,181.5,181.5
XS GIS Cut Line=2
613573.4589477812135723.60063592 613791.698979332135305.82686124
Node Last Edited Time=Feb/13/2022 12:06:11
#Sta/Elev= 51 
       0 2484.44     2.9 2483.84     8.2 2482.79    19.3 2480.12    26.7 2478.64
    30.3 2477.78    32.2  2477.5    58.9 2470.22    82.6 2462.32    85.5 2461.52
    91.1 2460.49    96.6 2459.66    99.4 2458.97   123.3 2451.74   129.7  2450.3
   133.1  2449.7   140.8 2448.77   143.7 2448.02   149.9  2446.7   151.8 2446.17
   155.5 2445.33   183.5 2441.13     185 2441.04   187.7    2441     234    2441
   240.2 2441.37   249.4 2442.74   250.8 2442.92   251.3    2443   252.1 2443.16
   284.5 2448.01   316.5 2455.72   317.6 2455.95   318.1 2456.05   319.8 2456.36
   328.6 2457.81   334.9 2459.14   348.7 2462.46   350.7 2462.91   351.7 2463.09
     355 2463.68   361.8  2464.8   372.8 2467.13   383.9 2468.95   390.3  2470.3
   394.9 2471.35   402.2 2472.66   445.3 2479.13   452.7    2480   461.2 2480.75
471.3424 2481.97
#Mann= 3 ,-1,0
       0    .025       0       0    .025       0471.3424    .025       0
Bank Sta=0,471.3424
XS Rating Curve= 0 ,0
XS HTab Starting El and Incr=2441.15,0.3, 100 
XS HTab Horizontal Distribution= 5 , 5 , 5 
Exp/Cntr(USF)=0,0
Exp/Cntr=0.3,0.1

Type RM Length L Ch R = 1 ,1155    ,232.6,232.6,232.6
XS GIS Cut Line=2
613723.1092551292135817.13207801613928.8784277322135443.00630964
Node Last Edited Time=Feb/13/2022 12:06:11
#Sta/Elev= 41 
       0 2475.16     3.2 2474.69    20.2 2471.14    37.2 2470.59    54.2 2467.04
    54.6 2466.96    55.5 2466.78    88.2 2459.94   105.2 2455.39   173.3 2441.19
   175.4 2441.06   179.2    2441   224.3    2441   230.3 2441.35   241.3    2443
   241.4 2443.03   252.2    2446   258.4 2447.68   263.2 2449.14     272 2452.21
   275.4 2453.44     303 2461.86   307.1  2463.2   309.4 2463.84   318.1 2465.98
   326.4 2468.04   329.1 2468.61   333.9 2469.44   343.5 2471.24     351 2472.89
   355.1 2473.59   360.5 2474.58     362 2474.77   364.8    2475     373 2475.66
     384 2477.05   392.9 2477.77   394.5 2477.92   395.8    2478   411.5 2478.51
 426.979  2478.1
#Mann= 3 ,-1,0
       0    .025       0       0    .025       0 426.979    .025       0
Bank Sta=0,426.979
XS Rating Curve= 0 ,0
XS HTab Starting El and Incr=2441.15,0.3, 100 
XS HTab Horizontal Distribution= 5 , 5 , 5 
Exp/Cntr(USF)=0,0
Exp/Cntr=0.3,0.1

Type RM Length L Ch R = 1 ,922     ,212.8,212.8,212.8
XS GIS Cut Line=2
613960.055575096 2135842.0737959614159.5893182272135542.77318121
Node Last Edited Time=Feb/13/2022 12:06:11
#Sta/Elev= 34 
       0 2477.51     8.2 2475.99    15.4 2474.98    18.9 2474.39    24.2 2473.02
    33.3 2469.97    40.4 2467.19    51.2 2461.96    61.9 2455.99    69.1 2451.62
    72.7 2449.39    77.9 2446.54    83.4  2444.2    87.1 2442.98    94.2  2441.2
     105    2440   140.8    2440   147.9 2440.99   158.7 2443.01   176.6 2446.67
   180.2 2447.69   185.5 2448.97   239.2 2460.97   244.7 2462.09   248.3 2462.66
   255.4 2463.79   266.2 2465.99     293 2469.48   302.1    2471   319.8 2472.98
   337.9 2474.33   346.7 2474.49   352.2  2474.7359.7146 2475.33
#Mann= 3 ,-1,0
       0    .025       0       0    .025       0359.7146    .025       0
Bank Sta=0,359.7146
XS Rating Curve= 0 ,0
XS HTab Starting El and Incr=2440.15,0.3, 100 
XS HTab Horizontal Distribution= 5 , 5 , 5 
Exp/Cntr(USF)=0,0
Exp/Cntr=0.3,0.1

Type RM Length L Ch R = 1 ,709     ,195.5,195.5,195.5
XS GIS Cut Line=2
614147.1184592812135948.07609694614390.300208721 2135567.7148991
Node Last Edited Time=Feb/13/2022 12:06:11
#Sta/Elev= 46 
       0 2452.63     3.5 2451.89     9.8 2450.83    17.1 2449.47    25.1 2447.78
    30.2 2446.92    35.9 2445.91    46.6  2443.5    52.5 2442.46    70.2 2440.82
      79 2440.25    87.9    2440     141    2440   143.8 2440.08   154.6 2440.88
   158.7 2441.38   176.4 2443.02   203.5 2447.07   211.8  2448.6   219.4 2449.79
   226.4 2450.57   229.5 2450.94   230.1 2451.04   231.2 2451.19   258.9 2456.32
   262.5 2456.87   264.9 2457.22   273.3 2458.24   275.5  2458.4   284.1 2459.13
   286.6 2459.45   300.3  2461.5   305.7 2462.15   314.2 2462.79   316.5 2462.96
     318 2463.13   335.7 2463.77   338.1 2464.07   341.9 2464.35   406.4    2468
   413.7  2468.2   422.7 2468.04   424.4 2468.03   435.2 2468.44     446 2468.36
451.4554 2468.57
#Mann= 3 ,-1,0
       0    .025       0       0    .025       0451.4554    .025       0
Bank Sta=0,451.4554
XS Rating Curve= 0 ,0
XS HTab Starting El and Incr=2440.15,0.3, 95 
XS HTab Horizontal Distribution= 5 , 5 , 5 
Exp/Cntr(USF)=0,0
Exp/Cntr=0.3,0.1

Type RM Length L Ch R = 1 ,513     ,174.4,174.4,174.4
XS GIS Cut Line=2
614327.9459139932136060.31382745614502.5379392322135711.12977697
Node Last Edited Time=Feb/13/2022 12:06:11
#Sta/Elev= 35 
       0 2451.22    74.2  2440.1    74.7 2440.02    74.9    2440   158.3    2440
   163.6 2440.16   174.2 2440.95   174.7 2440.98   191.6    2442   196.9 2442.48
     208 2443.98   219.1 2444.83     225 2445.52   240.8  2447.9   241.4 2447.97
   242.4 2448.07   252.5 2448.83   258.3 2449.52   274.2  2451.9   274.7 2451.97
     275    2452   285.8 2452.83   291.6 2453.52   296.9 2454.16     308 2454.99
   309.1 2455.12   319.2 2456.48     325    2457   341.6    2458   352.5  2459.3
   358.3    2460   374.7 2460.98   375.8 2461.02   385.8 2461.48390.3996 2461.48
#Mann= 3 ,-1,0
       0    .025       0       0    .025       0390.3996    .025       0
Bank Sta=0,390.3996
XS Rating Curve= 0 ,0
XS HTab Starting El and Incr=2440.15,0.3, 71 
XS HTab Horizontal Distribution= 5 , 5 , 5 
Exp/Cntr(USF)=0,0
Exp/Cntr=0.3,0.1

Type RM Length L Ch R = 1 ,339     ,239.4,239.4,239.4
XS GIS Cut Line=2
614490.0670802862136160.08069902614639.7173876342135798.42578959
Node Last Edited Time=Feb/13/2022 12:06:11
#Sta/Elev= 32 
       0 2455.19       3    2455    19.2    2453    35.3    2453   132.1    2441
   148.2    2440   212.8    2440   215.7 2440.27     223 2440.82   228.9 2441.52
   245.1 2443.93   247.6 2444.16   257.2 2445.12   261.2  2445.7   268.6 2446.77
   270.8 2446.99     280 2448.08   286.6 2449.15   293.5 2450.35   309.6 2452.18
   314.3 2452.85   337.1 2455.15   341.9 2455.42     358 2456.83   359.9 2456.94
   364.6    2457   371.3 2457.17   374.1 2457.24   380.9 2457.63   382.8 2457.77
   390.3    2458391.3943 2458.03
#Mann= 3 ,-1,0
       0    .025       0       0    .025       0391.3943    .025       0
Bank Sta=0,391.3943
XS Rating Curve= 0 ,0
XS HTab Starting El and Incr=2440.15,0.3, 60 
XS HTab Horizontal Distribution= 5 , 5 , 5 
Exp/Cntr(USF)=0,0
Exp/Cntr=0.3,0.1

Type RM Length L Ch R = 1 ,100     ,,,
XS GIS Cut Line=2
614758.1905476182136178.78698744 614851.721989712135810.89664854
Node Last Edited Time=Feb/13/2022 12:06:11
#Sta/Elev= 44 
       0 2452.92     6.8 2453.25     9.9  2453.3    22.2    2453    34.5 2453.49
    37.6 2453.49    42.8 2453.15    46.7  2452.8      59  2452.2    63.5 2451.79
    68.3 2451.47    83.7 2449.96    99.1 2447.46   114.5 2446.95   120.3 2445.81
   125.3 2445.03   129.9 2444.22   145.3 2441.97     146 2441.88   157.1 2440.35
   160.6    2440     176    2439   191.4    2439   203.7  2439.8   206.8 2439.95
   207.9 2440.03   218.4 2440.63   222.2    2441   237.6    2443     243 2443.88
   249.1 2444.63   252.9 2445.19   255.2 2445.37   264.2 2445.73   267.5 2445.89
   268.3 2445.93   314.5 2451.17   345.2 2452.66   352.2 2453.23   353.3 2453.29
   360.6    2454     376    2455   377.9 2455.06379.5938 2455.05
#Mann= 3 ,-1,0
       0    .025       0       0    .025       0379.5938    .025       0
Bank Sta=0,379.5938
XS Rating Curve= 0 ,0
XS HTab Starting El and Incr=2439.15,0.3, 53 
XS HTab Horizontal Distribution= 5 , 5 , 5 
Exp/Cntr(USF)=0,0
Exp/Cntr=0.3,0.1

LCMann Time=Dec/30/1899 00:00:00
LCMann Region Time=Dec/30/1899 00:00:00
LCMann Table=0
Chan Stop Cuts=-1 



Use User Specified Reach Order=0
GIS Ratio Cuts To Invert=-1
GIS Limit At Bridges=0
Composite Channel Slope=5
