Flow Title=flow_data_s7
Program Version=6.10
Number of Profiles= 5 
Profile Names=PF 1,PF 2,PF 3,PF 4,PF 5
River Rch & RM=River 1,Reach 1         ,3909    
      50     200     500    1000   10000
Boundary for River Rch & Prof#=River 1,Reach 1         , 1 
Up Type= 3 
Up Slope=0.001
Dn Type= 3 
Dn Slope=0.001
Boundary for River Rch & Prof#=River 1,Reach 1         , 2 
Up Type= 3 
Up Slope=0.001
Dn Type= 3 
Dn Slope=0.001
Boundary for River Rch & Prof#=River 1,Reach 1         , 3 
Up Type= 3 
Up Slope=0.001
Dn Type= 3 
Dn Slope=0.001
Boundary for River Rch & Prof#=River 1,Reach 1         , 4 
Up Type= 3 
Up Slope=0.001
Dn Type= 3 
Dn Slope=0.001
Boundary for River Rch & Prof#=River 1,Reach 1         , 5 
Up Type= 3 
Up Slope=0.001
Dn Type= 3 
Dn Slope=0.001
DSS Import StartDate=
DSS Import StartTime=
DSS Import EndDate=
DSS Import EndTime=
DSS Import GetInterval= 0 
DSS Import Interval=
DSS Import GetPeak= 0 
DSS Import FillOption= 0 
